<configuration>

<input>
<net-file value="notls.net.xml"/>
<route-files value="notls.rou.xml"/>
</input>


</configuration>