<?xml version="1.0" encoding="UTF-8"?>

<!-- generated on 03/06/20 22:19:50 by Eclipse SUMO duarouter Version 1.5.0
<configuration xmlns:xsi="http://www.w3.org/2001/XMLSchema-instance" xsi:noNamespaceSchemaLocation="http://sumo.dlr.de/xsd/duarouterConfiguration.xsd">

    <input>
        <net-file value="notls.net.xml"/>
        <route-files value="trips.trips.xml"/>
    </input>

    <output>
        <output-file value="notls.rou.xml"/>
        <alternatives-output value="notls.rou.alt.xml"/>
    </output>

    <time>
        <begin value="0"/>
        <end value="50.0"/>
    </time>

    <report>
        <no-warnings value="true"/>
        <ignore-errors value="true"/>
        <no-step-log value="true"/>
    </report>

</configuration>
-->

<routes xmlns:xsi="http://www.w3.org/2001/XMLSchema-instance" xsi:noNamespaceSchemaLocation="http://sumo.dlr.de/xsd/routes_file.xsd">
    <vehicle id="0" depart="0.00">
        <route edges="gneE1 -gneE2"/>
    </vehicle>
    <vehicle id="1" depart="1.00">
        <route edges="gneE0 -gneE3"/>
    </vehicle>
    <vehicle id="2" depart="2.00">
        <route edges="gneE0 -gneE2"/>
    </vehicle>
    <vehicle id="4" depart="4.00">
        <route edges="gneE3 -gneE0"/>
    </vehicle>
    <vehicle id="5" depart="5.00">
        <route edges="gneE1 -gneE3"/>
    </vehicle>
    <vehicle id="6" depart="6.00">
        <route edges="gneE3 -gneE0"/>
    </vehicle>
    <vehicle id="7" depart="7.00">
        <route edges="gneE1 -gneE0"/>
    </vehicle>
    <vehicle id="8" depart="8.00">
        <route edges="gneE3 -gneE2"/>
    </vehicle>
    <vehicle id="10" depart="10.00">
        <route edges="gneE1 -gneE2"/>
    </vehicle>
    <vehicle id="11" depart="11.00">
        <route edges="gneE3 -gneE1"/>
    </vehicle>
    <vehicle id="12" depart="12.00">
        <route edges="gneE3 -gneE1"/>
    </vehicle>
    <vehicle id="14" depart="14.00">
        <route edges="gneE3 -gneE0"/>
    </vehicle>
    <vehicle id="16" depart="16.00">
        <route edges="gneE2 -gneE0"/>
    </vehicle>
    <vehicle id="17" depart="17.00">
        <route edges="gneE0 -gneE2"/>
    </vehicle>
    <vehicle id="19" depart="19.00">
        <route edges="gneE2 -gneE1"/>
    </vehicle>
    <vehicle id="20" depart="20.00">
        <route edges="gneE1 -gneE2"/>
    </vehicle>
    <vehicle id="21" depart="21.00">
        <route edges="gneE3 -gneE1"/>
    </vehicle>
    <vehicle id="22" depart="22.00">
        <route edges="gneE0 -gneE3"/>
    </vehicle>
    <vehicle id="23" depart="23.00">
        <route edges="gneE3 -gneE0"/>
    </vehicle>
    <vehicle id="24" depart="24.00">
        <route edges="gneE1 -gneE0"/>
    </vehicle>
    <vehicle id="25" depart="25.00">
        <route edges="gneE1 -gneE2"/>
    </vehicle>
    <vehicle id="29" depart="29.00">
        <route edges="gneE0 -gneE2"/>
    </vehicle>
    <vehicle id="30" depart="30.00">
        <route edges="gneE1 -gneE2"/>
    </vehicle>
    <vehicle id="32" depart="32.00">
        <route edges="gneE3 -gneE0"/>
    </vehicle>
    <vehicle id="33" depart="33.00">
        <route edges="gneE1 -gneE2"/>
    </vehicle>
    <vehicle id="34" depart="34.00">
        <route edges="gneE1 -gneE2"/>
    </vehicle>
    <vehicle id="35" depart="35.00">
        <route edges="gneE1 -gneE2"/>
    </vehicle>
    <vehicle id="36" depart="36.00">
        <route edges="gneE2 -gneE1"/>
    </vehicle>
    <vehicle id="41" depart="41.00">
        <route edges="gneE0 -gneE1"/>
    </vehicle>
    <vehicle id="42" depart="42.00">
        <route edges="gneE0 -gneE1"/>
    </vehicle>
    <vehicle id="43" depart="43.00">
        <route edges="gneE1 -gneE3"/>
    </vehicle>
    <vehicle id="44" depart="44.00">
        <route edges="gneE3 -gneE1"/>
    </vehicle>
    <vehicle id="45" depart="45.00">
        <route edges="gneE2 -gneE1"/>
    </vehicle>
    <vehicle id="46" depart="46.00">
        <route edges="gneE0 -gneE3"/>
    </vehicle>
    <vehicle id="48" depart="48.00">
        <route edges="gneE1 -gneE2"/>
    </vehicle>
    <vehicle id="49" depart="49.00">
        <route edges="gneE0 -gneE3"/>
    </vehicle>
</routes>
