<?xml version="1.0" encoding="UTF-8"?>

<!-- generated on 01/11/20 23:34:52 by Eclipse SUMO duarouter Version 1.4.0
<configuration xmlns:xsi="http://www.w3.org/2001/XMLSchema-instance" xsi:noNamespaceSchemaLocation="http://sumo.dlr.de/xsd/duarouterConfiguration.xsd">

    <input>
        <net-file value="notls.net.xml"/>
        <route-files value="trips.trips.xml"/>
    </input>

    <output>
        <output-file value="notls.rou.xml"/>
        <alternatives-output value="notls.rou.alt.xml"/>
    </output>

    <time>
        <begin value="0"/>
        <end value="50.0"/>
    </time>

    <report>
        <no-warnings value="true"/>
        <ignore-errors value="true"/>
        <no-step-log value="true"/>
    </report>

</configuration>
-->

<routes xmlns:xsi="http://www.w3.org/2001/XMLSchema-instance" xsi:noNamespaceSchemaLocation="http://sumo.dlr.de/xsd/routes_file.xsd">
    <vehicle id="0" depart="0.00" >
        <route edges="gneE1 -gneE2"/>
    </vehicle>
    <vehicle id="2" depart="2.00">
        <route edges="gneE1 -gneE0"/>
    </vehicle>
    <vehicle id="5" depart="5.00">
        <route edges="gneE3 -gneE0"/>
    </vehicle>
    <vehicle id="6" depart="6.00">
        <route edges="gneE1 -gneE3"/>
    </vehicle>
    <vehicle id="7" depart="7.00">
        <route edges="gneE1 -gneE0"/>
    </vehicle>
    <vehicle id="8" depart="8.00">
        <route edges="gneE3 -gneE2"/>
    </vehicle>
    <vehicle id="9" depart="9.00">
        <route edges="gneE1 -gneE3"/>
    </vehicle>
    <vehicle id="10" depart="10.00">
        <route edges="gneE2 -gneE0"/>
    </vehicle>
    <vehicle id="11" depart="11.00">
        <route edges="gneE0 -gneE1"/>
    </vehicle>
    <vehicle id="12" depart="12.00">
        <route edges="gneE3 -gneE2"/>
    </vehicle>
    <vehicle id="14" depart="14.00">
        <route edges="gneE1 -gneE0"/>
    </vehicle>
    <vehicle id="21" depart="21.00">
        <route edges="gneE0 -gneE2"/>
    </vehicle>
    <vehicle id="23" depart="23.00">
        <route edges="gneE0 -gneE2"/>
    </vehicle>
    <vehicle id="VVIP" depart="25.00" color="0,1,0">
        <route edges="gneE2 -gneE0"/>
    </vehicle>
    <vehicle id="26" depart="26.00">
        <route edges="gneE2 -gneE3"/>
    </vehicle>
    <vehicle id="27" depart="27.00">
        <route edges="gneE2 -gneE0"/>
    </vehicle>
    <vehicle id="28" depart="28.00">
        <route edges="gneE1 -gneE0"/>
    </vehicle>
    <vehicle id="29" depart="29.00">
        <route edges="gneE2 -gneE3"/>
    </vehicle>
    <vehicle id="30" depart="30.00">
        <route edges="gneE1 -gneE3"/>
    </vehicle>
    <vehicle id="32" depart="32.00">
        <route edges="gneE1 -gneE2"/>
    </vehicle>
    <vehicle id="33" depart="33.00">
        <route edges="gneE3 -gneE1"/>
    </vehicle>
    <vehicle id="34" depart="34.00">
        <route edges="gneE0 -gneE3"/>
    </vehicle>
    <vehicle id="35" depart="35.00">
        <route edges="gneE1 -gneE0"/>
    </vehicle>
    <vehicle id="38" depart="38.00">
        <route edges="gneE1 -gneE3"/>
    </vehicle>
    <vehicle id="39" depart="39.00">
        <route edges="gneE3 -gneE1"/>
    </vehicle>
    <vehicle id="40" depart="40.00">
        <route edges="gneE1 -gneE3"/>
    </vehicle>
    <vehicle id="43" depart="43.00">
        <route edges="gneE0 -gneE3"/>
    </vehicle>
    <vehicle id="44" depart="44.00">
        <route edges="gneE3 -gneE1"/>
    </vehicle>
    <vehicle id="45" depart="45.00">
        <route edges="gneE1 -gneE3"/>
    </vehicle>
    <vehicle id="47" depart="47.00">
        <route edges="gneE1 -gneE2"/>
    </vehicle>
    <vehicle id="VIP" depart="60.00" color="1,0,0">
        <route edges="gneE1 -gneE0"/>
    </vehicle>
</routes>
